LAMMPS (4 May 2022)
variable                    T equal 300
variable                    R equal 984523

units		                metal
dimension                   3
boundary	                p p p
atom_style	                atomic

lattice                     bcc 3.189
Lattice spacing in x,y,z = 3.189 3.189 3.189
region                      box block 0 30 0 30 0 30
create_box                  1 box
Created orthogonal box = (0 0 0) to (95.67 95.67 95.67)
create_atoms                1 box
Created 54000 atoms

pair_style	                tensormd
pair_coeff	                * * ../../../W_k32_snapshot.npz W interp 0.001 1
Use interpolation: dr = 0.0010, algo = batch

mass                        1 183.8

neighbor                    1.0 bin
neigh_modify                every 1 delay 0 check yes

thermo                      20
thermo_style                custom step cpu temp ke pe etotal press vol pxx pyy pzz

velocity                    all create $T $R dist gaussian
velocity                    all create 300 $R dist gaussian
velocity                    all create 300 984523 dist gaussian
fix                         1 all nvt temp $T $T 0.1
fix                         1 all nvt temp 300 $T 0.1
fix                         1 all nvt temp 300 300 0.1
# dump                        1 all custom 1 dump.fnn id type x y z fx fy fz

run                         1000
  update every 1 steps, delay 0 steps, check yes
Step          CPU            Temp          KinEng         PotEng         TotEng         Press          Volume          Pxx            Pyy            Pzz
0   0              300            2093.9756     -690382.96     -688288.99      1557.2342      875643.49      1568.2262      1544.1582      1559.3182
Averages over the last 26 of 51 rows, steps 500 to 1000:
Temp KinEng PotEng TotEng Press Volume Pxx Pyy Pzz
247.85 1729.98 -688671 -686941 13170.1 875643 13180.6 13176.1 13153.5
Loop time of 108.243 on 48 procs for 1000 steps with 54000 atoms

                               FLOPs Report

         alloc:     0.0000 GFlops,       0.0002 secs,       0.0000 GFLOP/s
         setup:     0.0000 GFlops,       8.3921 secs,       0.0000 GFLOP/s
   fnn->interp:    60.1920 GFlops,      23.1532 secs,       2.5997 GFLOP/s
             P:   126.7200 GFlops,      11.0318 secs,      11.4868 GFLOP/s
             Q:     7.9200 GFlops,       2.0264 secs,       3.9084 GFLOP/s
             G:     0.0360 GFlops,       0.2788 secs,       0.1291 GFLOP/s
   nn->compute:   223.6354 GFlops,      11.2164 secs,      19.9382 GFLOP/s
          dEdP:     7.9920 GFlops,       6.1989 secs,       1.2893 GFLOP/s
            UV:   253.4400 GFlops,      28.7167 secs,       8.8255 GFLOP/s
            F1:     6.6330 GFlops,       8.1546 secs,       0.8134 GFLOP/s
            F2:     4.2570 GFlops,       5.9839 secs,       0.7114 GFLOP/s
        forces:     1.1880 GFlops,       0.8365 secs,       1.4202 GFLOP/s
       Overall:   692.0134 GFlops,     105.9895 secs,       6.5291 GFLOP/s
