LAMMPS (4 May 2022)
variable                    T equal 300
variable                    R equal 984523

units		                metal
dimension                   3
boundary	                p p p
atom_style	                atomic

lattice                     bcc 3.189
Lattice spacing in x,y,z = 3.189 3.189 3.189
region                      box block 0 24 0 24 0 48
create_box                  1 box
Created orthogonal box = (0 0 0) to (76.536 76.536 153.072)
create_atoms                1 box
Created 55296 atoms

pair_style	meam
pair_coeff	* * ../../library.meam W ../../parameter.meam W

mass                        1 183.8

neighbor                    1.0 bin
neigh_modify                every 5 delay 0 check yes

thermo                      100
thermo_style                custom step cpu temp ke pe etotal press vol pxx pyy pzz

velocity                    all create $T $R dist gaussian
velocity                    all create 300 $R dist gaussian
velocity                    all create 300 984523 dist gaussian
fix                         1 all nvt temp $T $T 0.1
fix                         1 all nvt temp 300 $T 0.1
fix                         1 all nvt temp 300 300 0.1

run                         1000
  update every 5 steps, delay 0 steps, check yes
Step          CPU            Temp          KinEng         PotEng         TotEng         Press          Volume          Pxx            Pyy            Pzz
0   0              300            2144.2319     -478406.73     -476262.5      -63636.501      896658.93     -63629.068     -63648.955     -63631.48
Averages over the last 6 of 11 rows, steps 500 to 1000:
Temp KinEng PotEng TotEng Press Volume Pxx Pyy Pzz
247.581 1769.57 -476657 -474887 -57216.4 896659 -57238.8 -57181.8 -57228.7
Loop time of 16.2771 on 48 procs for 1000 steps with 55296 atoms
