LAMMPS (4 May 2022)
variable                    T equal 300
variable                    R equal 984523

units		                metal
dimension                   3
boundary	                p p p
atom_style	                atomic

lattice                     bcc 3.189
Lattice spacing in x,y,z = 3.189 3.189 3.189
region                      box block 0 12 0 12 0 24
create_box                  1 box
Created orthogonal box = (0 0 0) to (38.268 38.268 76.536)
create_atoms                1 box
Created 6912 atoms

pair_style	meam
pair_coeff	* * ../../library.meam W ../../parameter.meam W

mass                        1 183.8

neighbor                    1.0 bin
neigh_modify                every 5 delay 0 check yes

thermo                      100
thermo_style                custom step cpu temp ke pe etotal press vol pxx pyy pzz

velocity                    all create $T $R dist gaussian
velocity                    all create 300 $R dist gaussian
velocity                    all create 300 984523 dist gaussian
fix                         1 all nvt temp $T $T 0.1
fix                         1 all nvt temp 300 $T 0.1
fix                         1 all nvt temp 300 300 0.1

run                         1000
  update every 5 steps, delay 0 steps, check yes
Step          CPU            Temp          KinEng         PotEng         TotEng         Press          Volume          Pxx            Pyy            Pzz
0   0              300            267.99506     -59800.842     -59532.847     -63636.824      112082.37     -63659.656     -63636.305     -63614.511
Averages over the last 6 of 11 rows, steps 500 to 1000:
Temp KinEng PotEng TotEng Press Volume Pxx Pyy Pzz
285.402 254.955 -59550.5 -59295.6 -55861.5 112082 -55857.2 -55823.6 -55903.7
Loop time of 15.5705 on 6 procs for 1000 steps with 6912 atoms
