LAMMPS (4 May 2022)
variable                    T equal 300
variable                    R equal 984523

units		                metal
dimension                   3
boundary	                p p p
atom_style	                atomic

lattice                     bcc 3.189
Lattice spacing in x,y,z = 3.189 3.189 3.189
region                      box block 0 4 0 4 0 4
create_box                  1 box
Created orthogonal box = (0 0 0) to (12.756 12.756 12.756)
create_atoms                1 box
Created 128 atoms

pair_style	meam
pair_coeff	* * ../../library.meam W ../../parameter.meam W

mass                        1 183.8

neighbor                    1.0 bin
neigh_modify                every 5 delay 0 check yes

thermo                      100
thermo_style                custom step cpu temp ke pe etotal press vol pxx pyy pzz

velocity                    all create $T $R dist gaussian
velocity                    all create 300 $R dist gaussian
velocity                    all create 300 984523 dist gaussian
fix                         1 all nvt temp $T $T 0.1
fix                         1 all nvt temp 300 $T 0.1
fix                         1 all nvt temp 300 300 0.1

run                         1000
  update every 5 steps, delay 0 steps, check yes
Step          CPU            Temp          KinEng         PotEng         TotEng         Press          Volume          Pxx            Pyy            Pzz
0   0              300            4.9248115     -1107.423      -1102.4982     -63656.41       2075.5994     -63616.278     -63752.095     -63600.857
Averages over the last 6 of 11 rows, steps 500 to 1000:
Temp KinEng PotEng TotEng Press Volume Pxx Pyy Pzz
291.374 4.78321 -1102.18 -1097.4 -54982.7 2075.6 -56097.1 -54507.3 -54343.8
Loop time of 2.10569 on 1 procs for 1000 steps with 128 atoms
