LAMMPS (4 May 2022)
variable                    T equal 300
variable                    R equal 984523

units		                metal
dimension                   3
boundary	                p p p
atom_style	                atomic

lattice                     bcc 3.189
Lattice spacing in x,y,z = 3.189 3.189 3.189
region                      box block 0 12 0 12 0 24
create_box                  1 box
Created orthogonal box = (0 0 0) to (38.268 38.268 76.536)
create_atoms                1 box
Created 6912 atoms

pair_style	                tensormd
pair_coeff	                * * ../../W_k32_snapshot.npz W interp 0.01 1
Use interpolation: dr = 0.0100, algo = batch

mass                        1 183.8

neighbor                    1.0 bin
neigh_modify                every 5 delay 0 check yes

thermo                      10
thermo_style                custom step cpu temp ke pe etotal press vol pxx pyy pzz

velocity                    all create $T $R dist gaussian
velocity                    all create 300 $R dist gaussian
velocity                    all create 300 984523 dist gaussian
fix                         1 all nvt temp $T $T 0.1
fix                         1 all nvt temp 300 $T 0.1
fix                         1 all nvt temp 300 300 0.1

run                         1000
  update every 5 steps, delay 0 steps, check yes
Step          CPU            Temp          KinEng         PotEng         TotEng         Press          Volume          Pxx            Pyy            Pzz
0   0              300            267.99506     -88369.011     -88101.016      1649.6415      112082.37      1626.8096      1650.1602      1671.9546
Averages over the last 51 of 101 rows, steps 500 to 1000:
Temp KinEng PotEng TotEng Press Volume Pxx Pyy Pzz
284.682 254.311 -88116.8 -87862.5 15248.4 112082 15247.7 15318.9 15178.6
Loop time of 47.9101 on 6 procs for 1000 steps with 6912 atoms

                               FLOPs Report

         alloc:     0.0000 GFlops,       0.0001 secs,       0.0000 GFLOP/s
         setup:     0.0000 GFlops,       2.6564 secs,       0.0000 GFLOP/s
   fnn->interp:    61.6366 GFlops,      10.8668 secs,       5.6720 GFLOP/s
             P:   129.7613 GFlops,       5.1804 secs,      25.0487 GFLOP/s
             Q:     8.1101 GFlops,       1.2947 secs,       6.2639 GFLOP/s
             G:     0.0369 GFlops,       0.2558 secs,       0.1441 GFLOP/s
   nn->compute:   229.0026 GFlops,       7.2592 secs,      31.5464 GFLOP/s
          dEdP:     8.1838 GFlops,       1.5440 secs,       5.3003 GFLOP/s
            UV:   259.5226 GFlops,       9.4312 secs,      27.5175 GFLOP/s
            F1:     6.7922 GFlops,       3.1081 secs,       2.1853 GFLOP/s
            F2:     4.3592 GFlops,       5.1169 secs,       0.8519 GFLOP/s
        forces:     1.2165 GFlops,       0.5449 secs,       2.2326 GFLOP/s
       Overall:   708.6217 GFlops,      47.2586 secs,      14.9946 GFLOP/s
