LAMMPS (4 May 2022)
variable                    T equal 300
variable                    R equal 984523

units		                metal
dimension                   3
boundary	                p p p
atom_style	                atomic

lattice                     bcc 3.189
Lattice spacing in x,y,z = 3.189 3.189 3.189
region                      box block 0 8 0 8 0 8
create_box                  1 box
Created orthogonal box = (0 0 0) to (25.512 25.512 25.512)
create_atoms                1 box
Created 1024 atoms

pair_style	                tensormd
pair_coeff	                * * ../../../W_k32_snapshot.npz W interp 0.1 1
Use interpolation: dr = 0.1000, algo = batch

mass                        1 183.8

neighbor                    1.0 bin
neigh_modify                every 1 delay 0 check yes

thermo                      1
thermo_style                custom step cpu temp ke pe etotal press vol pxx pyy pzz

velocity                    all create $T $R dist gaussian
velocity                    all create 300 $R dist gaussian
velocity                    all create 300 984523 dist gaussian
fix                         1 all nvt temp $T $T 0.1
fix                         1 all nvt temp 300 $T 0.1
fix                         1 all nvt temp 300 300 0.1
dump                        1 all custom 1 dump.fnn id type x y z fx fy fz

run                         1000
  update every 1 steps, delay 0 steps, check yes
Step          CPU            Temp          KinEng         PotEng         TotEng         Press          Volume          Pxx            Pyy            Pzz
0   0              300            39.669939     -13096.002     -13056.332     -3842.0468      16604.795     -3685.7232     -4071.3945     -3769.0228
Averages over the last 501 of 1001 rows, steps 500 to 1000:
Temp KinEng PotEng TotEng Press Volume Pxx Pyy Pzz
302.467 39.9961 -13054.7 -13014.7 17667.8 16604.8 17686.5 17496.1 17820.7
Loop time of 4.72101 on 16 procs for 1000 steps with 1024 atoms

                               FLOPs Report

         alloc:     0.0000 GFlops,       0.0001 secs,       0.0000 GFLOP/s
         setup:     0.0000 GFlops,       0.2419 secs,       0.0000 GFLOP/s
   fnn->interp:     3.4243 GFlops,       0.7825 secs,       4.3762 GFLOP/s
             P:     7.2090 GFlops,       0.4626 secs,      15.5821 GFLOP/s
             Q:     0.4506 GFlops,       0.0832 secs,       5.4123 GFLOP/s
             G:     0.0020 GFlops,       0.0117 secs,       0.1754 GFLOP/s
   nn->compute:    12.7224 GFlops,       0.4828 secs,      26.3538 GFLOP/s
          dEdP:     0.4547 GFlops,       0.1159 secs,       3.9214 GFLOP/s
            UV:    14.4179 GFlops,       1.0253 secs,      14.0627 GFLOP/s
            F1:     0.3773 GFlops,       0.3744 secs,       1.0078 GFLOP/s
            F2:     0.2422 GFlops,       0.3932 secs,       0.6158 GFLOP/s
        forces:     0.0676 GFlops,       0.0437 secs,       1.5474 GFLOP/s
       Overall:    39.3679 GFlops,       4.0174 secs,       9.7994 GFLOP/s
