LAMMPS (4 May 2022)
variable                    T equal 300
variable                    R equal 984523

units		                metal
dimension                   3
boundary	                p p p
atom_style	                atomic

lattice                     bcc 3.189
Lattice spacing in x,y,z = 3.189 3.189 3.189
region                      box block 0 30 0 30 0 30
create_box                  1 box
Created orthogonal box = (0 0 0) to (95.67 95.67 95.67)
create_atoms                1 box
Created 54000 atoms

pair_style	                tensormd
pair_coeff	                * * ../../W_k32_snapshot.npz W interp 0.01 1
Use interpolation: dr = 0.0100, algo = batch

mass                        1 183.8

neighbor                    1.0 bin
neigh_modify                every 1 delay 0 check yes

thermo                      20
thermo_style                custom step cpu temp ke pe etotal press vol pxx pyy pzz

velocity                    all create $T $R dist gaussian
velocity                    all create 300 $R dist gaussian
velocity                    all create 300 984523 dist gaussian
fix                         1 all nvt temp $T $T 0.1
fix                         1 all nvt temp 300 $T 0.1
fix                         1 all nvt temp 300 300 0.1
# dump                        1 all custom 1 dump.fnn id type x y z fx fy fz

run                         1000
  update every 1 steps, delay 0 steps, check yes
Step          CPU            Temp          KinEng         PotEng         TotEng         Press          Volume          Pxx            Pyy            Pzz
0   0              300            2093.9756     -690382.9      -688288.93      1649.9637      875643.49      1660.9557      1636.8877      1652.0477
Averages over the last 26 of 51 rows, steps 500 to 1000:
Temp KinEng PotEng TotEng Press Volume Pxx Pyy Pzz
247.855 1730.01 -688671 -686941 13170.8 875643 13181.3 13176.9 13154.2
Loop time of 107.511 on 48 procs for 1000 steps with 54000 atoms

                               FLOPs Report

         alloc:     0.0000 GFlops,       0.0002 secs,       0.0000 GFLOP/s
         setup:     0.0000 GFlops,       8.4244 secs,       0.0000 GFLOP/s
   fnn->interp:    60.1920 GFlops,      22.0026 secs,       2.7357 GFLOP/s
             P:   126.7200 GFlops,      11.1807 secs,      11.3338 GFLOP/s
             Q:     7.9200 GFlops,       1.9977 secs,       3.9646 GFLOP/s
             G:     0.0360 GFlops,       0.3451 secs,       0.1043 GFLOP/s
   nn->compute:   223.6354 GFlops,      11.2042 secs,      19.9600 GFLOP/s
          dEdP:     7.9920 GFlops,       6.2536 secs,       1.2780 GFLOP/s
            UV:   253.4400 GFlops,      28.5922 secs,       8.8639 GFLOP/s
            F1:     6.6330 GFlops,       8.2425 secs,       0.8047 GFLOP/s
            F2:     4.2570 GFlops,       5.9615 secs,       0.7141 GFLOP/s
        forces:     1.1880 GFlops,       0.8741 secs,       1.3591 GFLOP/s
       Overall:   692.0134 GFlops,     105.0588 secs,       6.5869 GFLOP/s
