LAMMPS (4 May 2022)
variable                    T equal 300
variable                    R equal 984523

units		                metal
dimension                   3
boundary	                p p p
atom_style	                atomic

lattice                     bcc 3.189
Lattice spacing in x,y,z = 3.189 3.189 3.189
region                      box block 0 8 0 8 0 8
create_box                  1 box
Created orthogonal box = (0 0 0) to (25.512 25.512 25.512)
create_atoms                1 box
Created 1024 atoms

pair_style	                tensormd
pair_coeff	                * * ../../../W_k32_snapshot.npz W interp 0.001 1
Use interpolation: dr = 0.0010, algo = batch

mass                        1 183.8

neighbor                    1.0 bin
neigh_modify                every 1 delay 0 check yes

thermo                      1
thermo_style                custom step cpu temp ke pe etotal press vol pxx pyy pzz

velocity                    all create $T $R dist gaussian
velocity                    all create 300 $R dist gaussian
velocity                    all create 300 984523 dist gaussian
fix                         1 all nvt temp $T $T 0.1
fix                         1 all nvt temp 300 $T 0.1
fix                         1 all nvt temp 300 300 0.1
dump                        1 all custom 1 dump.fnn id type x y z fx fy fz

run                         1000
  update every 1 steps, delay 0 steps, check yes
Step          CPU            Temp          KinEng         PotEng         TotEng         Press          Volume          Pxx            Pyy            Pzz
0   0              300            39.669939     -13091.707     -13052.037      1554.7871      16604.795      1711.1107      1325.4394      1627.8112
Averages over the last 501 of 1001 rows, steps 500 to 1000:
Temp KinEng PotEng TotEng Press Volume Pxx Pyy Pzz
303.891 40.1844 -13051.7 -13011.5 16395.9 16604.8 16441.6 16220.8 16525.3
Loop time of 4.94768 on 16 procs for 1000 steps with 1024 atoms

                               FLOPs Report

         alloc:     0.0000 GFlops,       0.0001 secs,       0.0000 GFLOP/s
         setup:     0.0000 GFlops,       0.2353 secs,       0.0000 GFLOP/s
   fnn->interp:     3.4243 GFlops,       1.2068 secs,       2.8374 GFLOP/s
             P:     7.2090 GFlops,       0.4984 secs,      14.4645 GFLOP/s
             Q:     0.4506 GFlops,       0.0853 secs,       5.2817 GFLOP/s
             G:     0.0020 GFlops,       0.0115 secs,       0.1777 GFLOP/s
   nn->compute:    12.7224 GFlops,       0.4752 secs,      26.7748 GFLOP/s
          dEdP:     0.4547 GFlops,       0.1056 secs,       4.3069 GFLOP/s
            UV:    14.4179 GFlops,       0.9510 secs,      15.1606 GFLOP/s
            F1:     0.3773 GFlops,       0.3634 secs,       1.0383 GFLOP/s
            F2:     0.2422 GFlops,       0.3771 secs,       0.6422 GFLOP/s
        forces:     0.0676 GFlops,       0.0425 secs,       1.5910 GFLOP/s
       Overall:    39.3679 GFlops,       4.3522 secs,       9.0455 GFLOP/s
