LAMMPS (4 May 2022)
variable                    T equal 300
variable                    R equal 984523

units		                metal
dimension                   3
boundary	                p p p
atom_style	                atomic

lattice                     bcc 3.189
Lattice spacing in x,y,z = 3.189 3.189 3.189
region                      box block 0 8 0 8 0 8
create_box                  1 box
Created orthogonal box = (0 0 0) to (25.512 25.512 25.512)
create_atoms                1 box
Created 1024 atoms

pair_style	                tensormd
pair_coeff	                * * ../../../W_k32_snapshot.npz W interp 0.005 1
Use interpolation: dr = 0.0050, algo = batch

mass                        1 183.8

neighbor                    1.0 bin
neigh_modify                every 1 delay 0 check yes

thermo                      1
thermo_style                custom step cpu temp ke pe etotal press vol pxx pyy pzz

velocity                    all create $T $R dist gaussian
velocity                    all create 300 $R dist gaussian
velocity                    all create 300 984523 dist gaussian
fix                         1 all nvt temp $T $T 0.1
fix                         1 all nvt temp 300 $T 0.1
fix                         1 all nvt temp 300 300 0.1
dump                        1 all custom 1 dump.fnn id type x y z fx fy fz

run                         1000
  update every 1 steps, delay 0 steps, check yes
Step          CPU            Temp          KinEng         PotEng         TotEng         Press          Volume          Pxx            Pyy            Pzz
0   0              300            39.669939     -13091.706     -13052.036      1567.8146      16604.795      1724.1383      1338.4669      1640.8387
Averages over the last 501 of 1001 rows, steps 500 to 1000:
Temp KinEng PotEng TotEng Press Volume Pxx Pyy Pzz
303.891 40.1844 -13051.7 -13011.5 16396 16604.8 16441.7 16220.9 16525.3
Loop time of 4.93791 on 16 procs for 1000 steps with 1024 atoms

                               FLOPs Report

         alloc:     0.0000 GFlops,       0.0001 secs,       0.0000 GFLOP/s
         setup:     0.0000 GFlops,       0.2493 secs,       0.0000 GFLOP/s
   fnn->interp:     3.4243 GFlops,       0.9053 secs,       3.7824 GFLOP/s
             P:     7.2090 GFlops,       0.5034 secs,      14.3202 GFLOP/s
             Q:     0.4506 GFlops,       0.0862 secs,       5.2249 GFLOP/s
             G:     0.0020 GFlops,       0.0116 secs,       0.1763 GFLOP/s
   nn->compute:    12.7224 GFlops,       0.4853 secs,      26.2178 GFLOP/s
          dEdP:     0.4547 GFlops,       0.1139 secs,       3.9909 GFLOP/s
            UV:    14.4179 GFlops,       1.0202 secs,      14.1324 GFLOP/s
            F1:     0.3773 GFlops,       0.3558 secs,       1.0605 GFLOP/s
            F2:     0.2422 GFlops,       0.3924 secs,       0.6171 GFLOP/s
        forces:     0.0676 GFlops,       0.0418 secs,       1.6162 GFLOP/s
       Overall:    39.3679 GFlops,       4.1654 secs,       9.4512 GFLOP/s
