LAMMPS (4 May 2022)
variable                    T equal 300
variable                    R equal 984523

units		                metal
dimension                   3
boundary	                p p p
atom_style	                atomic

lattice                     bcc 3.189
Lattice spacing in x,y,z = 3.189 3.189 3.189
region                      box block 0 4 0 4 0 4
create_box                  1 box
Created orthogonal box = (0 0 0) to (12.756 12.756 12.756)
create_atoms                1 box
Created 128 atoms

pair_style	                tensormd
pair_coeff	                * * ../../W_k32_snapshot.npz W interp 0.001 1
Use interpolation: dr = 0.0010, algo = batch

mass                        1 183.8

neighbor                    1.0 bin
neigh_modify                every 5 delay 0 check yes

thermo                      10
thermo_style                custom step cpu temp ke pe etotal press vol pxx pyy pzz

velocity                    all create $T $R dist gaussian
velocity                    all create 300 $R dist gaussian
velocity                    all create 300 984523 dist gaussian
fix                         1 all nvt temp $T $T 0.1
fix                         1 all nvt temp 300 $T 0.1
fix                         1 all nvt temp 300 300 0.1

run                         1000
  update every 5 steps, delay 0 steps, check yes
Step          CPU            Temp          KinEng         PotEng         TotEng         Press          Volume          Pxx            Pyy            Pzz
0   0              300            4.9248115     -1636.4633     -1631.5385      1537.3261      2075.5994      1577.4581      1441.6413      1592.8789
Averages over the last 51 of 101 rows, steps 500 to 1000:
Temp KinEng PotEng TotEng Press Volume Pxx Pyy Pzz
305.665 5.01781 -1631.55 -1626.53 16063.3 2075.6 15610.9 16209.3 16369.8
Loop time of 4.27142 on 1 procs for 1000 steps with 128 atoms

                               FLOPs Report

         alloc:     0.0000 GFlops,       0.0000 secs,       0.0000 GFLOP/s
         setup:     0.0000 GFlops,       0.2174 secs,       0.0000 GFLOP/s
   fnn->interp:     6.8485 GFlops,       1.2381 secs,       5.5316 GFLOP/s
             P:    14.4179 GFlops,       0.3616 secs,      39.8748 GFLOP/s
             Q:     0.9011 GFlops,       0.1244 secs,       7.2432 GFLOP/s
             G:     0.0041 GFlops,       0.0162 secs,       0.2529 GFLOP/s
   nn->compute:    25.4447 GFlops,       0.7486 secs,      33.9909 GFLOP/s
          dEdP:     0.9093 GFlops,       0.0772 secs,      11.7811 GFLOP/s
            UV:    28.8358 GFlops,       0.6570 secs,      43.8915 GFLOP/s
            F1:     0.7547 GFlops,       0.1757 secs,       4.2958 GFLOP/s
            F2:     0.4844 GFlops,       0.5742 secs,       0.8435 GFLOP/s
        forces:     0.1352 GFlops,       0.0508 secs,       2.6606 GFLOP/s
       Overall:    78.7357 GFlops,       4.2411 secs,      18.5648 GFLOP/s
