LAMMPS (4 May 2022)
variable                    T equal 300
variable                    R equal 984523

units		                metal
dimension                   3
boundary	                p p p
atom_style	                atomic

lattice                     bcc 3.189
Lattice spacing in x,y,z = 3.189 3.189 3.189
region                      box block 0 24 0 24 0 48
create_box                  1 box
Created orthogonal box = (0 0 0) to (76.536 76.536 153.072)
create_atoms                1 box
Created 55296 atoms

pair_style	                tensormd
pair_coeff	                * * ../../W_k32_snapshot.npz W interp 0.01 1
Use interpolation: dr = 0.0100, algo = batch

mass                        1 183.8

neighbor                    1.0 bin
neigh_modify                every 1 delay 0 check yes

thermo                      100
thermo_style                custom step cpu temp ke pe etotal press vol pxx pyy pzz

velocity                    all create $T $R dist gaussian
velocity                    all create 300 $R dist gaussian
velocity                    all create 300 984523 dist gaussian
fix                         1 all nvt temp $T $T 0.1
fix                         1 all nvt temp 300 $T 0.1
fix                         1 all nvt temp 300 300 0.1

run                         1000
  update every 1 steps, delay 0 steps, check yes
Step          CPU            Temp          KinEng         PotEng         TotEng         Press          Volume          Pxx            Pyy            Pzz
0   0              300            2144.2319     -706952.09     -704807.86      1649.9648      896658.93      1657.398       1637.5107      1654.9858
Averages over the last 6 of 11 rows, steps 500 to 1000:
Temp KinEng PotEng TotEng Press Volume Pxx Pyy Pzz
249.057 1780.12 -705215 -703435 13054.3 896659 13021.1 13087.3 13054.5
Loop time of 110.16 on 48 procs for 1000 steps with 55296 atoms

                               FLOPs Report

         alloc:     0.0000 GFlops,       0.0002 secs,       0.0000 GFLOP/s
         setup:     0.0000 GFlops,       8.6583 secs,       0.0000 GFLOP/s
   fnn->interp:    61.6366 GFlops,      22.7241 secs,       2.7124 GFLOP/s
             P:   129.7613 GFlops,      11.4629 secs,      11.3201 GFLOP/s
             Q:     8.1101 GFlops,       2.0312 secs,       3.9927 GFLOP/s
             G:     0.0369 GFlops,       0.3624 secs,       0.1017 GFLOP/s
   nn->compute:   229.0026 GFlops,      11.6853 secs,      19.5975 GFLOP/s
          dEdP:     8.1838 GFlops,       6.4948 secs,       1.2601 GFLOP/s
            UV:   259.5226 GFlops,      29.3426 secs,       8.8446 GFLOP/s
            F1:     6.7922 GFlops,       8.4189 secs,       0.8068 GFLOP/s
            F2:     4.3592 GFlops,       6.0757 secs,       0.7175 GFLOP/s
        forces:     1.2165 GFlops,       0.9004 secs,       1.3510 GFLOP/s
       Overall:   708.6217 GFlops,     108.1568 secs,       6.5518 GFLOP/s
